Circuit: * C:\Users\james\Documents\School\Spring 2022\ECE 2804 Integrated Design Project 13616\EEG project\EEG-Arduino-Code\Draft3.asc


Date: Sun Apr 03 14:34:21 2022
Total elapsed time: 0.231 seconds.

tnom = 27
temp = 27
method = trap
totiter = 506
traniter = 0
tranpoints = 0
accept = 0
rejected = 0
matrix size = 8
fillins = 0
solver = Normal
Matrix Compiler1: 326 bytes object code size  0.3/0.2/[0.2]
Matrix Compiler2: 560 bytes object code size  0.2/0.3/[0.2]

