Circuit: * C:\Users\james\Documents\School\Spring 2022\ECE 2804 Integrated Design Project 13616\EEG project\EEG-Arduino-Code\Draft2.asc

WARNING: Node N002 is floating.

WARNING: Less than two connections to node N002.  This node is used by CC.
Direct Newton iteration for .op point succeeded.

Date: Fri Feb 25 23:18:45 2022
Total elapsed time: 0.121 seconds.

tnom = 27
temp = 27
method = modified trap
totiter = 2093
traniter = 2082
tranpoints = 1042
accept = 1042
rejected = 0
matrix size = 8
fillins = 0
solver = Normal
Matrix Compiler1: 398 bytes object code size  0.1/0.1/[0.0]
Matrix Compiler2: 608 bytes object code size  0.1/0.1/[0.0]

