Circuit: * C:\Users\james\Documents\School\Spring 2022\ECE 2804 Integrated Design Project 13616\EEG project\EEG-Arduino-Code\Draft1.asc

Early termination of direct N-R iteration.
Direct Newton iteration failed to find .op point.  (Use ".option noopiter" to skip.)
Starting Gmin stepping
Gmin = 10
Gmin = 1.07374
Gmin = 0.115292
Gmin = 0.0123794
Gmin = 0.00132923
Gmin = 0.000142725
vernier = 0.5
vernier = 0.25
vernier = 0.125
vernier = 0.0625
vernier = 0.03125
Gmin = 0.00011277
vernier = 0.015625
vernier = 0.0078125
vernier = 0.00390625
vernier = 0.00195313
vernier = 0.000976563
vernier = 0.000488281
Gmin = 0
Gmin = 0
Gmin stepping succeeded in finding the operating point.

Heightened Def Con from 1.00098e-008 to 1.00101e-008
Heightened Def Con from 1.00111e-008 to 1.00111e-008
Heightened Def Con from 1.00111e-008 to 1.20111e-008
Heightened Def Con from 1.29552e-008 to 1.29552e-008
Heightened Def Con from 1.29552e-008 +to 1.29552e-008
Heightened Def Con from 1.29552e-008 +to 1.29552e-008
Heightened Def Con from 1.29552e-008 to 1.29552e-008
Heightened Def Con from 1.29552e-008 ++++++++++++++to 1.29552e-008
Heightened Def Con from 1.29552e-008 to 1.29552e-008
Heightened Def Con from 1.29552e-008 ++++++++++++++to 1.29552e-008
Heightened Def Con from 1.29552e-008 ++++++++++++++to 1.29552e-008
Heightened Def Con from 1.29552e-008 ++++++++++++++to 1.29552e-008
Heightened Def Con from 1.29552e-008 ++++++++++++++to 1.29552e-008
Heightened Def Con from 1.29552e-008 ++++++++++++++to 1.29552e-008
Heightened Def Con from 1.29552e-008 ++++++++++++++to 1.29552e-008
Heightened Def Con from 1.29552e-008 ++++++++++++++to 1.29552e-008
Heightened Def Con from 1.29552e-008 ++++++++++++++to 1.29552e-008
Heightened Def Con from 1.29552e-008 ++++++++++++++to 1.29552e-008
Heightened Def Con from 1.29552e-008 ++++++++++++++to 1.29552e-008
Heightened Def Con from 1.29552e-008 ++++++++++++++to 1.29552e-008
Heightened Def Con from 1.29552e-008 ++++++++++++++to 1.29552e-008
Heightened Def Con from 1.29552e-008 ++++++++++++++to 1.29552e-008
Heightened Def Con from 1.29552e-008 +++++++++++++++to 1.29552e-008
Heightened Def Con from 1.29552e-008 +++++++++++++++to 1.29553e-008
Heightened Def Con from 1.29553e-008 +++++++++++++++to 1.29553e-008
Heightened Def Con from 1.29553e-008 +++++++++++++++to 1.29553e-008
Heightened Def Con from 1.29553e-008 +++++++++++++++to 1.29553e-008
Heightened Def Con from 1.29553e-008 +++++++++++++++to 1.29553e-008
Heightened Def Con from 1.29553e-008 +++++++++++++++to 1.29553e-008
Heightened Def Con from 1.29553e-008 +++++++++++++++to 1.29553e-008
Heightened Def Con from 1.29553e-008 +++++++++++++++to 1.29553e-008
Heightened Def Con from 1.29553e-008 +++++++++++++++to 1.29553e-008
Heightened Def Con from 1.29553e-008 +++++++++++++++to 1.29553e-008
Heightened Def Con from 1.29553e-008 +++++++++++++++to 1.29553e-008
Heightened Def Con from 1.29553e-008 +++++++++++++++to 1.29553e-008
Heightened Def Con from 1.29553e-008 +++++++++++++++to 1.29553e-008
Heightened Def Con from 1.29553e-008 +++++++++++++++to 1.29553e-008
Heightened Def Con from 1.29553e-008 +++++++++++++++to 1.29553e-008
Heightened Def Con from 1.29553e-008 +++++++++++++++to 1.29553e-008
Heightened Def Con from 1.29553e-008 +++++++++++++++to 1.29553e-008
Heightened Def Con from 1.29553e-008 +++++++++++++++to 1.29553e-008
Heightened Def Con from 1.29553e-008 +++++++++++++++to 1.29553e-008
Heightened Def Con from 1.29553e-008 +++++++++++++++to 1.29553e-008
Heightened Def Con from 1.29553e-008 +++++++++++++++to 1.29553e-008
Heightened Def Con from 1.29553e-008 +++++++++++++++to 1.29553e-008
Heightened Def Con from 1.29553e-008 +++++++++++++++to 1.29553e-008
Heightened Def Con from 1.29553e-008 +++++++++++++++to 1.29553e-008
Heightened Def Con from 1.29553e-008 +++++++++++++++to 1.29553e-008
Heightened Def Con from 1.29553e-008 +++++++++++++++to 1.29553e-008
Heightened Def Con from 1.29553e-008 ++++++++++++++++to 1.29555e-008
Heightened Def Con from 1.29555e-008 ++++++++++++++++to 1.29558e-008
Heightened Def Con from 1.29558e-008 ++++++++++++++++to 1.2956e-008
Heightened Def Con from 1.2956e-008 ++++++++++++++++to 1.2956e-008
Heightened Def Con from 1.2956e-008 ++++++++++++++++to 1.29563e-008
Heightened Def Con from 1.29563e-008 ++++++++++++++++to 1.29563e-008
Heightened Def Con from 1.29563e-008 ++++++++++++++++to 1.29563e-008
Heightened Def Con from 1.29563e-008 ++++++++++++++++to 1.29566e-008
Heightened Def Con from 1.29566e-008 ++++++++++++++++to 1.29566e-008
Heightened Def Con from 1.29566e-008 +++++++++++++++to 1.29566e-008
Heightened Def Con from 1.29566e-008 +++++++++++++++to 1.29566e-008
Heightened Def Con from 1.29566e-008 +++++++++++++++to 1.29567e-008
Heightened Def Con from 1.29567e-008 +++++++++++++++to 1.29567e-008
Heightened Def Con from 1.29567e-008 +++++++++++++++to 1.29567e-008
Heightened Def Con from 1.29567e-008 +++++++++++++++to 1.29567e-008
Heightened Def Con from 1.29567e-008 +++++++++++++++to 1.29567e-008
Heightened Def Con from 1.29567e-008 +++++++++++++++to 1.29567e-008
Heightened Def Con from 1.29567e-008 +++++++++++++++to 1.29567e-008
Heightened Def Con from 1.29567e-008 +++++++++++++++to 1.29568e-008
Heightened Def Con from 1.29568e-008 +++++++++++++++to 1.29568e-008
Heightened Def Con from 1.29568e-008 +++++++++++++++to 1.29568e-008
Heightened Def Con from 1.29568e-008 +++++++++++++++to 1.29568e-008
Heightened Def Con from 1.29568e-008 +++++++++++++++to 1.29569e-008
Heightened Def Con from 1.29569e-008 +++++++++++++++to 1.2957e-008
Heightened Def Con from 1.2957e-008 +++++++++++++++to 1.2957e-008
Heightened Def Con from 1.2957e-008 +++++++++++++++to 1.2957e-008
Heightened Def Con from 1.2957e-008 +++++++++++++++to 1.2957e-008
Heightened Def Con from 1.2957e-008 +++++++++++++++to 1.2957e-008
Heightened Def Con from 1.2957e-008 +++++++++++++++to 1.2957e-008
Heightened Def Con from 1.2957e-008 +++++++++++++++to 1.2957e-008
Heightened Def Con from 1.2957e-008 +++++++++++++++to 1.2957e-008
Heightened Def Con from 1.2957e-008 +++++++++++++++to 1.2957e-008
Heightened Def Con from 1.2957e-008 +++++++++++++++to 1.2957e-008
Heightened Def Con from 1.2957e-008 +++++++++++++++to 1.2957e-008
Heightened Def Con from 1.2957e-008 +++++++++++++++to 1.2957e-008
Heightened Def Con from 1.2957e-008 +++++++++++++++to 1.2957e-008
Heightened Def Con from 1.2957e-008 +++++++++++++++to 1.2957e-008
Heightened Def Con from 1.2957e-008 +++++++++++++++to 1.2957e-008
Heightened Def Con from 1.2957e-008 +++++++++++++++to 1.2957e-008
Heightened Def Con from 1.2957e-008 +++++++++++++++to 1.2957e-008
Heightened Def Con from 1.2957e-008 ++++++++++++++++++++++++++++to 1.2957e-008
Heightened Def Con from 1.2957e-008 ++++++++++++++++++++++++++to 1.29573e-008
Heightened Def Con from 1.29573e-008 +++++++++++++++++++++++++to 1.29592e-008
Heightened Def Con from 1.29592e-008 ++++++++++++++++++++to 1.29614e-008
Heightened Def Con from 1.29614e-008 ++++++++++++++++to 1.29621e-008
Heightened Def Con from 1.29621e-008 ++++++++++++++++to 1.29629e-008
Heightened Def Con from 1.29629e-008 ++++++++++++++++to 1.29631e-008
Heightened Def Con from 1.29631e-008 ++++++++++++++++to 1.29632e-008
Heightened Def Con from 1.29632e-008 ++++++++++++++++to 1.29632e-008
Heightened Def Con from 1.29632e-008 ++++++++++++++++to 1.29632e-008
Heightened Def Con from 1.29632e-008 ++++++++++++++++to 1.29632e-008
Heightened Def Con from 1.29632e-008 ++++++++++++++++to 1.29632e-008
Heightened Def Con from 1.29632e-008 ++++++++++++++++to 1.29632e-008
Heightened Def Con from 1.29632e-008 ++++++++++++++++to 1.29632e-008
Heightened Def Con from 1.29632e-008 ++++++++++++++++to 1.29632e-008
Heightened Def Con from 1.29632e-008 ++++++++++++++++to 1.29632e-008
Heightened Def Con from 1.29632e-008 ++++++++++++++++to 1.29632e-008
Heightened Def Con from 1.29632e-008 ++++++++++++++++to 1.29632e-008
Heightened Def Con from 1.29632e-008 ++++++++++++++++to 1.29632e-008
Heightened Def Con from 1.29632e-008 ++++++++++++++++to 1.29632e-008
Heightened Def Con from 1.29632e-008 ++++++++++++++++to 1.29632e-008
Heightened Def Con from 1.29632e-008 ++++++++++++++++to 1.29632e-008
Heightened Def Con from 1.29632e-008 ++++++++++++++++to 1.29633e-008
Heightened Def Con from 1.29633e-008 ++++++++++++++++to 1.29633e-008
Heightened Def Con from 1.29633e-008 ++++++++++++++++to 1.29633e-008
Heightened Def Con from 1.29633e-008 ++++++++++++++++to 1.29633e-008
Heightened Def Con from 1.29633e-008 ++++++++++++++++to 1.29633e-008
Heightened Def Con from 1.29633e-008 ++++++++++++++++to 1.29633e-008
Heightened Def Con from 1.29633e-008 ++++++++++++++++to 1.29633e-008
Heightened Def Con from 1.29633e-008 ++++++++++++++++to 1.29633e-008
Heightened Def Con from 1.29633e-008 ++++++++++++++++to 1.29633e-008
Heightened Def Con from 1.29633e-008 ++++++++++++++++to 1.29633e-008
Heightened Def Con from 1.29633e-008 ++++++++++++++++to 1.29633e-008
Heightened Def Con from 1.29633e-008 ++++++++++++++++to 1.29633e-008
Heightened Def Con from 1.29633e-008 ++++++++++++++++to 1.29634e-008
Heightened Def Con from 1.29634e-008 ++++++++++++++++to 1.29635e-008
Heightened Def Con from 1.29635e-008 ++++++++++++++++to 1.29635e-008
Heightened Def Con from 1.29635e-008 ++++++++++++++++to 1.29636e-008
Heightened Def Con from 1.29636e-008 ++++++++++++++++to 1.29636e-008
Heightened Def Con from 1.29636e-008 ++++++++++++++++to 1.29637e-008
Heightened Def Con from 1.29637e-008 ++++++++++++++++to 1.29637e-008
Heightened Def Con from 1.29637e-008 ++++++++++++++++to 1.29638e-008
Heightened Def Con from 1.29638e-008 ++++++++++++++++to 1.29638e-008
Heightened Def Con from 1.29638e-008 ++++++++++++++++to 1.29638e-008
Heightened Def Con from 1.29638e-008 ++++++++++++++++to 1.29638e-008
Heightened Def Con from 1.29638e-008 ++++++++++++++++to 1.29639e-008
Heightened Def Con from 1.29639e-008 ++++++++++++++++to 1.2964e-008
Heightened Def Con from 1.2964e-008 ++++++++++++++++to 1.2964e-008
Heightened Def Con from 1.2964e-008 ++++++++++++++++to 1.2964e-008
Heightened Def Con from 1.2964e-008 ++++++++++++++++to 1.2964e-008
Heightened Def Con from 1.2964e-008 ++++++++++++++++to 1.2964e-008
Heightened Def Con from 1.2964e-008 ++++++++++++++++to 1.2964e-008
Heightened Def Con from 1.2964e-008 ++++++++++++++++to 1.2964e-008
Heightened Def Con from 1.2964e-008 ++++++++++++++++to 1.29641e-008
Heightened Def Con from 1.29641e-008 ++++++++++++++++to 1.29641e-008
Heightened Def Con from 1.29641e-008 ++++++++++++++++to 1.29641e-008
Heightened Def Con from 1.29641e-008 ++++++++++++++++to 1.29641e-008
Heightened Def Con from 1.29641e-008 ++++++++++++++++to 1.29641e-008
Heightened Def Con from 1.29641e-008 ++++++++++++++++to 1.29641e-008
Heightened Def Con from 1.29641e-008 ++++++++++++++++to 1.29641e-008
Heightened Def Con from 1.29641e-008 ++++++++++++++++to 1.29641e-008
Heightened Def Con from 1.29641e-008 ++++++++++++++++to 1.29641e-008
Heightened Def Con from 1.29641e-008 ++++++++++++++++to 1.29641e-008
Heightened Def Con from 1.29641e-008 ++++++++++++++++to 1.29641e-008
Heightened Def Con from 1.29641e-008 ++++++++++++++++to 1.29641e-008
Heightened Def Con from 1.29641e-008 ++++++++++++++++to 1.29641e-008
Heightened Def Con from 1.29641e-008 ++++++++++++++++to 1.29641e-008
Heightened Def Con from 1.29641e-008 ++++++++++++++++to 1.29641e-008
Heightened Def Con from 1.29641e-008 ++++++++++++++++to 1.29641e-008
Heightened Def Con from 1.29641e-008 ++++++++++++++++to 1.29641e-008
Heightened Def Con from 1.29641e-008 ++++++++++++++++to 1.29641e-008
Heightened Def Con from 1.29641e-008 ++++++++++++++++to 1.29641e-008
Heightened Def Con from 1.29641e-008 ++++++++++++++++to 1.29641e-008
Heightened Def Con from 1.29641e-008 ++++++++++++++++to 1.29641e-008
Heightened Def Con from 1.29641e-008 ++++++++++++++++to 1.29641e-008
Heightened Def Con from 1.29641e-008 ++++++++++++++++to 1.29642e-008
Heightened Def Con from 1.29642e-008 ++++++++++++++++to 1.29642e-008
Heightened Def Con from 1.29642e-008 ++++++++++++++++to 1.29642e-008
Heightened Def Con from 1.29642e-008 ++++++++++++++++to 1.29642e-008
Heightened Def Con from 1.29642e-008 ++++++++++++++++to 1.29642e-008
Heightened Def Con from 1.29642e-008 ++++++++++++++++to 1.29642e-008
Heightened Def Con from 1.29642e-008 ++++++++++++++++to 1.29642e-008
Heightened Def Con from 1.29642e-008 ++++++++++++++++to 1.29642e-008
Heightened Def Con from 1.29642e-008 ++++++++++++++++to 1.29642e-008
Heightened Def Con from 1.29642e-008 ++++++++++++++++to 1.29642e-008
Heightened Def Con from 1.29642e-008 ++++++++++++++++to 1.29642e-008
Heightened Def Con from 1.29642e-008 ++++++++++++++++to 1.29642e-008
Heightened Def Con from 1.29642e-008 ++++++++++++++++to 1.29642e-008
Heightened Def Con from 1.29642e-008 ++++++++++++++++to 1.29642e-008
Heightened Def Con from 1.29642e-008 ++++++++++++++++to 1.29642e-008
Heightened Def Con from 1.29642e-008 ++++++++++++++++to 1.29642e-008
Heightened Def Con from 1.29642e-008 ++++++++++++++++to 1.29642e-008
Heightened Def Con from 1.29642e-008 ++++++++++++++++to 1.29642e-008
Heightened Def Con from 1.29642e-008 ++++++++++++++++to 1.29642e-008
Heightened Def Con from 1.29642e-008 ++++++++++++++++to 1.29642e-008
Heightened Def Con from 1.29642e-008 ++++++++++++++++to 1.29642e-008
Heightened Def Con from 1.29642e-008 ++++++++++++++++to 1.29643e-008
Heightened Def Con from 1.29643e-008 ++++++++++++++++to 1.29643e-008
Heightened Def Con from 1.29643e-008 ++++++++++++++++to 1.29643e-008
Heightened Def Con from 1.29643e-008 ++++++++++++++++to 1.29643e-008
Heightened Def Con from 1.29643e-008 ++++++++++++++++to 1.29643e-008
Heightened Def Con from 1.29643e-008 ++++++++++++++++to 1.29643e-008
Heightened Def Con from 1.29643e-008 ++++++++++++++++to 1.29643e-008
Heightened Def Con from 1.29643e-008 ++++++++++++++++to 1.29643e-008
Heightened Def Con from 1.29643e-008 ++++++++++++++++++++++++++++++++++++++++++++++++++Fatal Error: Analysis:  Time step too small; time = 1.29643e-008, timestep = 1.25e-019: trouble with u3:jx-instance j:u3:1

