Circuit: * C:\Users\Tony\Documents\Spring_2022\ECE 2804 Integrated Design\github\EEG-Arduino-Code\InAmp.asc

Early termination of direct N-R iteration.
Direct Newton iteration failed to find .op point.  (Use ".option noopiter" to skip.)
Starting Gmin stepping
Gmin = 10
Gmin = 1.07374
Gmin = 0.115292
Gmin = 0.0123794
Gmin = 0.00132923
vernier = 0.5
vernier = 0.25
vernier = 0.125
vernier = 0.0625
Gmin = 0.00100083
vernier = 0.03125
vernier = 0.015625
vernier = 0.0078125
vernier = 0.00390625
vernier = 0.00195313
Gmin = 0.00100083
vernier = 0.000976563
vernier = 0.000488281
Gmin = 0
Gmin stepping succeeded in finding the operating point.


Date: Mon Feb 21 15:58:36 2022
Total elapsed time: 0.587 seconds.

tnom = 27
temp = 27
method = modified trap
totiter = 5679
traniter = 4178
tranpoints = 1432
accept = 1328
rejected = 104
matrix size = 132
fillins = 345
solver = Normal
Thread vector: 30.4/6.0[3] 5.4/3.5[3] 3.2/1.0[2] 0.8/2.9[1]  2592/500
Matrix Compiler1: 28.26 KB object code size  9.2/4.4/[3.5]
Matrix Compiler2: 16.87 KB object code size  3.5/3.1/[1.5]

